*SPEF "ieee 1481-1999"
*DESIGN "adder32"
*DATE "16:25:34 Wednesday April 09, 2025"
*VENDOR "The OpenROAD Project"
*PROGRAM "OpenROAD"
*VERSION "v2.0-19249-geafd19f93"
*DESIGN_FLOW "NAME_SCOPE LOCAL" "PIN_CAP NONE"
*DIVIDER /
*DELIMITER :
*BUS_DELIMITER []
*T_UNIT 1 NS
*C_UNIT 1 PF
*R_UNIT 1 OHM
*L_UNIT 1 HENRY

*NAME_MAP
*1 A[0]
*2 A[10]
*3 A[11]
*4 A[12]
*5 A[13]
*6 A[14]
*7 A[15]
*8 A[16]
*9 A[17]
*10 A[18]
*11 A[19]
*12 A[1]
*13 A[20]
*14 A[21]
*15 A[22]
*16 A[23]
*17 A[24]
*18 A[25]
*19 A[26]
*20 A[27]
*21 A[28]
*22 A[29]
*23 A[2]
*24 A[30]
*25 A[31]
*26 A[3]
*27 A[4]
*28 A[5]
*29 A[6]
*30 A[7]
*31 A[8]
*32 A[9]
*33 B[0]
*34 B[10]
*35 B[11]
*36 B[12]
*37 B[13]
*38 B[14]
*39 B[15]
*40 B[16]
*41 B[17]
*42 B[18]
*43 B[19]
*44 B[1]
*45 B[20]
*46 B[21]
*47 B[22]
*48 B[23]
*49 B[24]
*50 B[25]
*51 B[26]
*52 B[27]
*53 B[28]
*54 B[29]
*55 B[2]
*56 B[30]
*57 B[31]
*58 B[3]
*59 B[4]
*60 B[5]
*61 B[6]
*62 B[7]
*63 B[8]
*64 B[9]
*65 Ci
*66 net66
*67 net67
*68 net68
*69 net69
*70 net70
*71 net71
*72 net72
*73 net73
*74 net74
*75 net75
*76 net76
*77 net77
*78 net78
*79 net79
*80 net80
*81 net81
*82 net82
*83 net83
*84 net84
*85 net85
*86 net86
*87 net87
*88 net88
*89 net89
*90 net90
*91 net91
*92 net92
*93 net93
*94 net94
*95 net95
*96 net96
*97 net97
*98 net98
*99 _000_
*100 _001_
*101 _002_
*102 _003_
*103 _004_
*104 _005_
*105 _006_
*106 _007_
*107 _008_
*108 _009_
*109 _010_
*110 _011_
*111 _012_
*112 _013_
*113 _014_
*114 _015_
*115 _016_
*116 _017_
*117 _018_
*118 _019_
*119 _020_
*120 _021_
*121 _022_
*122 _023_
*123 _024_
*124 _025_
*125 _026_
*126 _027_
*127 _028_
*128 _029_
*129 _030_
*130 _031_
*131 _032_
*132 _033_
*133 _034_
*134 _035_
*135 _036_
*136 _037_
*137 _038_
*138 _039_
*139 _040_
*140 _041_
*141 _042_
*142 _043_
*143 _044_
*144 _045_
*145 _046_
*146 _047_
*147 _048_
*148 _049_
*149 _050_
*150 _051_
*151 _052_
*152 _053_
*153 _054_
*154 _055_
*155 _056_
*156 _057_
*157 _058_
*158 _059_
*159 _060_
*160 _061_
*161 _062_
*162 _063_
*163 _064_
*164 _065_
*165 _066_
*166 _067_
*167 _068_
*168 _069_
*169 _070_
*170 _071_
*171 _072_
*172 _073_
*173 _074_
*174 _075_
*175 _076_
*176 _077_
*177 _078_
*178 _079_
*179 _080_
*180 _081_
*181 _082_
*182 _083_
*183 _084_
*184 _085_
*185 _086_
*186 _087_
*187 _088_
*188 _089_
*189 _090_
*190 _091_
*191 _092_
*192 _093_
*193 _094_
*194 _095_
*195 _096_
*196 _097_
*197 _098_
*198 _099_
*199 _100_
*200 _101_
*201 _102_
*202 _103_
*203 _104_
*204 _105_
*205 _106_
*206 _107_
*207 _108_
*208 _109_
*209 _110_
*210 _111_
*211 _112_
*212 _113_
*213 _114_
*214 _115_
*215 _116_
*216 _117_
*217 _118_
*218 _119_
*219 _120_
*220 _121_
*221 _122_
*222 _123_
*223 _124_
*224 _125_
*225 _126_
*226 _127_
*227 _128_
*228 _129_
*229 _130_
*230 _131_
*231 _132_
*232 _133_
*233 _134_
*234 _135_
*235 _136_
*236 _137_
*237 _138_
*238 _139_
*239 _140_
*240 _141_
*241 _142_
*242 _143_
*243 _144_
*244 _145_
*245 _146_
*246 _147_
*247 _148_
*248 _149_
*249 _150_
*250 _151_
*251 _152_
*252 _153_
*253 _154_
*254 _155_
*255 _156_
*256 _157_
*257 _158_
*258 _159_
*259 _160_
*260 _161_
*261 _162_
*262 _163_
*263 _164_
*264 _165_
*265 _166_
*266 _167_
*267 _168_
*268 _169_
*269 _170_
*270 _171_
*271 _172_
*272 _173_
*273 _174_
*274 _175_
*275 _176_
*276 _177_
*277 _178_
*278 _179_
*279 _180_
*280 _181_
*281 _182_
*282 _183_
*283 _184_
*284 _185_
*285 _186_
*286 _187_
*287 _188_
*288 _189_
*289 _190_
*290 _191_
*291 _192_
*292 _193_
*293 _194_
*294 _195_
*295 _196_
*296 _197_
*297 _198_
*298 _199_
*299 _200_
*300 _201_
*301 _202_
*302 _203_
*303 _204_
*304 _205_
*305 _206_
*306 _207_
*307 _208_
*308 _209_
*309 _210_
*310 _211_
*313 net1
*314 net2
*315 net3
*316 net4
*317 net5
*318 net6
*319 net7
*320 net8
*321 net9
*322 net10
*323 net11
*324 net12
*325 net13
*326 net14
*327 net15
*328 net16
*329 net17
*330 net18
*331 net19
*332 net20
*333 net21
*334 net22
*335 net23
*336 net24
*337 net25
*338 net26
*339 net27
*340 net28
*341 net29
*342 net30
*343 net31
*344 net32
*345 net33
*346 net34
*347 net35
*348 net36
*349 net37
*350 net38
*351 net39
*352 net40
*353 net41
*354 net42
*355 net43
*356 net44
*357 net45
*358 net46
*359 net47
*360 net48
*361 net49
*362 net50
*363 net51
*364 net52
*365 net53
*366 net54
*367 net55
*368 net56
*369 net57
*370 net58
*371 net59
*372 net60
*373 net61
*374 net62
*375 net63
*376 net64
*377 net65
*378 Co
*379 S[0]
*380 S[10]
*381 S[11]
*382 S[12]
*383 S[13]
*384 S[14]
*385 S[15]
*386 S[16]
*387 S[17]
*388 S[18]
*389 S[19]
*390 S[1]
*391 S[20]
*392 S[21]
*393 S[22]
*394 S[23]
*395 S[24]
*396 S[25]
*397 S[26]
*398 S[27]
*399 S[28]
*400 S[29]
*401 S[2]
*402 S[30]
*403 S[31]
*404 S[3]
*405 S[4]
*406 S[5]
*407 S[6]
*408 S[7]
*409 S[8]
*410 S[9]
*411 _212_
*412 _213_
*413 _214_
*414 _215_
*415 _216_
*416 _217_
*417 _218_
*418 _219_
*419 _220_
*420 _221_
*421 _222_
*422 _223_
*423 _224_
*424 _225_
*425 _226_
*426 _227_
*427 _228_
*428 _229_
*429 _230_
*430 _231_
*431 _232_
*432 _233_
*433 _234_
*434 _235_
*435 _236_
*436 _237_
*437 _238_
*438 _239_
*439 _240_
*440 _241_
*441 _242_
*442 _243_
*443 _244_
*444 _245_
*445 _246_
*446 _247_
*447 _248_
*448 _249_
*449 _250_
*450 _251_
*451 _252_
*452 _253_
*453 _254_
*454 _255_
*455 _256_
*456 _257_
*457 _258_
*458 _259_
*459 _260_
*460 _261_
*461 _262_
*462 _263_
*463 _264_
*464 _265_
*465 _266_
*466 _267_
*467 _268_
*468 _269_
*469 _270_
*470 _271_
*471 _272_
*472 _273_
*473 _274_
*474 _275_
*475 _276_
*476 _277_
*477 _278_
*478 _279_
*479 _280_
*480 _281_
*481 _282_
*482 _283_
*483 _284_
*484 _285_
*485 _286_
*486 _287_
*487 _288_
*488 _289_
*489 _290_
*490 _291_
*491 _292_
*492 _293_
*493 _294_
*494 _295_
*495 _296_
*496 _297_
*497 _298_
*498 _299_
*499 _300_
*500 _301_
*501 _302_
*502 _303_
*503 _304_
*504 _305_
*505 _306_
*506 _307_
*507 _308_
*508 _309_
*509 _310_
*510 _311_
*511 _312_
*512 _313_
*513 _314_
*514 _315_
*515 _316_
*516 _317_
*517 _318_
*518 _319_
*519 _320_
*520 _321_
*521 _322_
*522 _323_
*523 _324_
*524 _325_
*525 _326_
*526 _327_
*527 _328_
*528 _329_
*529 _330_
*530 _331_
*531 _332_
*532 _333_
*533 _334_
*534 _335_
*535 _336_
*536 _337_
*537 _338_
*538 _339_
*539 _340_
*540 _341_
*541 _342_
*542 _343_
*543 _344_
*544 _345_
*545 _346_
*546 _347_
*547 _348_
*548 _349_
*549 _350_
*550 _351_
*551 _352_
*552 _353_
*553 _354_
*554 _355_
*555 _356_
*556 _357_
*557 _358_
*558 _359_
*559 _360_
*560 _361_
*561 _362_
*562 _363_
*563 _364_
*564 _365_
*565 _366_
*566 _367_
*567 _368_
*568 _369_
*569 _370_
*570 _371_
*571 _372_
*572 _373_
*573 _374_
*574 _375_
*575 _376_
*576 _377_
*577 _378_
*578 _379_
*579 _380_
*580 _381_
*581 _382_
*582 _383_
*583 _384_
*584 _385_
*585 _386_
*586 _387_
*587 _388_
*588 _389_
*589 _390_
*590 _391_
*591 _392_
*592 _393_
*593 _394_
*594 _395_
*595 _396_
*596 _397_
*597 _398_
*598 _399_
*599 _400_
*600 _401_
*601 _402_
*602 _403_
*603 _404_
*604 _405_
*605 _406_
*606 _407_
*607 _408_
*608 _409_
*609 _410_
*610 _411_
*611 _412_
*612 _413_
*613 _414_
*614 _415_
*615 _416_
*616 _417_
*617 _418_
*618 _419_
*619 _420_
*620 _421_
*621 _422_
*622 _423_
*623 _424_
*624 _425_
*625 _426_
*626 _427_
*627 _428_
*628 _429_
*629 _430_
*630 _431_
*631 _432_
*632 _433_
*633 _434_
*634 _435_
*635 _436_
*636 _437_
*637 _438_
*638 _439_
*639 _440_
*640 _441_
*641 _442_
*642 _443_
*643 _444_
*644 _445_
*645 _446_
*646 _447_
*647 _448_
*648 _449_
*649 _450_
*650 _451_
*651 _452_
*652 _453_
*653 _454_
*654 _455_
*655 _456_
*656 input1
*657 input2
*658 input3
*659 input4
*660 input5
*661 input6
*662 input7
*663 input8
*664 input9
*665 input10
*666 input11
*667 input12
*668 input13
*669 input14
*670 input15
*671 input16
*672 input17
*673 input18
*674 input19
*675 input20
*676 input21
*677 input22
*678 input23
*679 input24
*680 input25
*681 input26
*682 input27
*683 input28
*684 input29
*685 input30
*686 input31
*687 input32
*688 input33
*689 input34
*690 input35
*691 input36
*692 input37
*693 input38
*694 input39
*695 input40
*696 input41
*697 input42
*698 input43
*699 input44
*700 input45
*701 input46
*702 input47
*703 input48
*704 input49
*705 input50
*706 input51
*707 input52
*708 input53
*709 input54
*710 input55
*711 input56
*712 input57
*713 input58
*714 input59
*715 input60
*716 input61
*717 input62
*718 input63
*719 input64
*720 input65
*721 output66
*722 output67
*723 output68
*724 output69
*725 output70
*726 output71
*727 output72
*728 output73
*729 output74
*730 output75
*731 output76
*732 output77
*733 output78
*734 output79
*735 output80
*736 output81
*737 output82
*738 output83
*739 output84
*740 output85
*741 output86
*742 output87
*743 output88
*744 output89
*745 output90
*746 output91
*747 output92
*748 output93
*749 output94
*750 output95
*751 output96
*752 output97
*753 output98
*754 FILLER_0_0
*755 FILLER_0_7
*756 FILLER_0_14
*757 FILLER_0_38
*758 FILLER_0_40
*759 FILLER_0_57
*760 FILLER_0_63
*761 FILLER_0_67
*762 FILLER_0_81
*763 FILLER_0_89
*764 FILLER_0_99
*765 FILLER_0_106
*766 FILLER_0_113
*767 FILLER_0_120
*768 FILLER_0_127
*769 FILLER_0_134
*770 FILLER_0_141
*771 FILLER_0_148
*772 FILLER_0_155
*773 FILLER_0_162
*774 FILLER_1_0
*775 FILLER_1_7
*776 FILLER_1_14
*777 FILLER_1_21
*778 FILLER_1_28
*779 FILLER_1_32
*780 FILLER_1_41
*781 FILLER_1_48
*782 FILLER_1_56
*783 FILLER_1_63
*784 FILLER_1_70
*785 FILLER_1_74
*786 FILLER_1_80
*787 FILLER_1_82
*788 FILLER_1_91
*789 FILLER_1_97
*790 FILLER_1_104
*791 FILLER_1_111
*792 FILLER_1_118
*793 FILLER_1_125
*794 FILLER_1_132
*795 FILLER_1_139
*796 FILLER_1_146
*797 FILLER_1_153
*798 FILLER_1_160
*799 FILLER_1_164
*800 FILLER_2_0
*801 FILLER_2_4
*802 FILLER_2_10
*803 FILLER_2_16
*804 FILLER_2_20
*805 FILLER_2_35
*806 FILLER_2_42
*807 FILLER_2_49
*808 FILLER_2_56
*809 FILLER_2_63
*810 FILLER_2_70
*811 FILLER_2_77
*812 FILLER_2_84
*813 FILLER_2_91
*814 FILLER_2_98
*815 FILLER_2_105
*816 FILLER_2_112
*817 FILLER_2_119
*818 FILLER_2_126
*819 FILLER_2_133
*820 FILLER_2_140
*821 FILLER_2_147
*822 FILLER_2_154
*823 FILLER_2_161
*824 FILLER_2_165
*825 FILLER_3_12
*826 FILLER_3_14
*827 FILLER_3_25
*828 FILLER_3_31
*829 FILLER_3_40
*830 FILLER_3_50
*831 FILLER_3_52
*832 FILLER_3_61
*833 FILLER_3_65
*834 FILLER_3_75
*835 FILLER_3_82
*836 FILLER_3_89
*837 FILLER_3_96
*838 FILLER_3_103
*839 FILLER_3_110
*840 FILLER_3_117
*841 FILLER_3_124
*842 FILLER_3_131
*843 FILLER_3_138
*844 FILLER_3_145
*845 FILLER_3_152
*846 FILLER_3_159
*847 FILLER_4_0
*848 FILLER_4_7
*849 FILLER_4_9
*850 FILLER_4_14
*851 FILLER_4_23
*852 FILLER_4_33
*853 FILLER_4_35
*854 FILLER_4_43
*855 FILLER_4_50
*856 FILLER_4_61
*857 FILLER_4_63
*858 FILLER_4_74
*859 FILLER_4_76
*860 FILLER_4_85
*861 FILLER_4_92
*862 FILLER_4_99
*863 FILLER_4_106
*864 FILLER_4_113
*865 FILLER_4_120
*866 FILLER_4_127
*867 FILLER_4_134
*868 FILLER_4_141
*869 FILLER_4_148
*870 FILLER_4_155
*871 FILLER_4_162
*872 FILLER_5_0
*873 FILLER_5_7
*874 FILLER_5_14
*875 FILLER_5_21
*876 FILLER_5_23
*877 FILLER_5_100
*878 FILLER_5_107
*879 FILLER_5_114
*880 FILLER_5_121
*881 FILLER_5_125
*882 FILLER_5_130
*883 FILLER_5_137
*884 FILLER_5_144
*885 FILLER_5_151
*886 FILLER_5_158
*887 FILLER_5_165
*888 FILLER_6_0
*889 FILLER_6_4
*890 FILLER_6_10
*891 FILLER_6_17
*892 FILLER_6_24
*893 FILLER_6_26
*894 FILLER_6_46
*895 FILLER_6_56
*896 FILLER_6_63
*897 FILLER_6_65
*898 FILLER_6_78
*899 FILLER_6_88
*900 FILLER_6_103
*901 FILLER_6_110
*902 FILLER_6_117
*903 FILLER_6_124
*904 FILLER_6_130
*905 FILLER_6_137
*906 FILLER_6_143
*907 FILLER_6_151
*908 FILLER_6_156
*909 FILLER_6_160
*910 FILLER_7_0
*911 FILLER_7_7
*912 FILLER_7_11
*913 FILLER_7_17
*914 FILLER_7_22
*915 FILLER_7_24
*916 FILLER_7_37
*917 FILLER_7_64
*918 FILLER_7_98
*919 FILLER_7_105
*920 FILLER_7_112
*921 FILLER_7_119
*922 FILLER_7_125
*923 FILLER_7_133
*924 FILLER_7_153
*925 FILLER_8_0
*926 FILLER_8_7
*927 FILLER_8_15
*928 FILLER_8_34
*929 FILLER_8_47
*930 FILLER_8_57
*931 FILLER_8_64
*932 FILLER_8_83
*933 FILLER_8_92
*934 FILLER_8_99
*935 FILLER_8_106
*936 FILLER_8_115
*937 FILLER_8_142
*938 FILLER_8_160
*939 FILLER_8_164
*940 FILLER_9_0
*941 FILLER_9_16
*942 FILLER_9_23
*943 FILLER_9_28
*944 FILLER_9_35
*945 FILLER_9_42
*946 FILLER_9_99
*947 FILLER_9_106
*948 FILLER_9_121
*949 FILLER_9_136
*950 FILLER_9_143
*951 FILLER_9_151
*952 FILLER_9_163
*953 FILLER_9_165
*954 FILLER_10_4
*955 FILLER_10_11
*956 FILLER_10_16
*957 FILLER_10_18
*958 FILLER_10_23
*959 FILLER_10_29
*960 FILLER_10_38
*961 FILLER_10_44
*962 FILLER_10_59
*963 FILLER_10_76
*964 FILLER_10_115
*965 FILLER_10_119
*966 FILLER_10_147
*967 FILLER_10_153
*968 FILLER_10_161
*969 FILLER_10_165
*970 FILLER_11_0
*971 FILLER_11_11
*972 FILLER_11_17
*973 FILLER_11_22
*974 FILLER_11_35
*975 FILLER_11_40
*976 FILLER_11_46
*977 FILLER_11_56
*978 FILLER_11_62
*979 FILLER_11_64
*980 FILLER_11_69
*981 FILLER_11_71
*982 FILLER_11_76
*983 FILLER_11_91
*984 FILLER_11_93
*985 FILLER_11_140
*986 FILLER_11_146
*987 FILLER_11_156
*988 FILLER_11_161
*989 FILLER_12_0
*990 FILLER_12_7
*991 FILLER_12_14
*992 FILLER_12_21
*993 FILLER_12_30
*994 FILLER_12_47
*995 FILLER_12_56
*996 FILLER_12_77
*997 FILLER_12_79
*998 FILLER_12_88
*999 FILLER_12_93
*1000 FILLER_12_100
*1001 FILLER_12_129
*1002 FILLER_12_142
*1003 FILLER_12_164
*1004 FILLER_13_0
*1005 FILLER_13_7
*1006 FILLER_13_14
*1007 FILLER_13_21
*1008 FILLER_13_28
*1009 FILLER_13_30
*1010 FILLER_13_40
*1011 FILLER_13_46
*1012 FILLER_13_57
*1013 FILLER_13_59
*1014 FILLER_13_64
*1015 FILLER_13_70
*1016 FILLER_13_90
*1017 FILLER_13_92
*1018 FILLER_13_112
*1019 FILLER_13_128
*1020 FILLER_13_142
*1021 FILLER_13_147
*1022 FILLER_13_156
*1023 FILLER_14_0
*1024 FILLER_14_7
*1025 FILLER_14_14
*1026 FILLER_14_21
*1027 FILLER_14_28
*1028 FILLER_14_82
*1029 FILLER_14_87
*1030 FILLER_14_94
*1031 FILLER_14_103
*1032 FILLER_14_110
*1033 FILLER_14_120
*1034 FILLER_14_122
*1035 FILLER_14_127
*1036 FILLER_14_129
*1037 FILLER_14_139
*1038 FILLER_14_154
*1039 FILLER_14_160
*1040 FILLER_15_0
*1041 FILLER_15_7
*1042 FILLER_15_14
*1043 FILLER_15_21
*1044 FILLER_15_28
*1045 FILLER_15_32
*1046 FILLER_15_46
*1047 FILLER_15_53
*1048 FILLER_15_59
*1049 FILLER_15_68
*1050 FILLER_15_74
*1051 FILLER_15_83
*1052 FILLER_15_100
*1053 FILLER_15_107
*1054 FILLER_15_114
*1055 FILLER_15_129
*1056 FILLER_15_136
*1057 FILLER_15_157
*1058 FILLER_16_0
*1059 FILLER_16_7
*1060 FILLER_16_14
*1061 FILLER_16_21
*1062 FILLER_16_28
*1063 FILLER_16_42
*1064 FILLER_16_51
*1065 FILLER_16_62
*1066 FILLER_16_86
*1067 FILLER_16_95
*1068 FILLER_16_102
*1069 FILLER_16_106
*1070 FILLER_16_111
*1071 FILLER_16_118
*1072 FILLER_16_122
*1073 FILLER_16_138
*1074 FILLER_16_152
*1075 FILLER_16_161
*1076 FILLER_17_0
*1077 FILLER_17_7
*1078 FILLER_17_14
*1079 FILLER_17_21
*1080 FILLER_17_28
*1081 FILLER_17_35
*1082 FILLER_17_42
*1083 FILLER_17_52
*1084 FILLER_17_56
*1085 FILLER_17_65
*1086 FILLER_17_72
*1087 FILLER_17_79
*1088 FILLER_17_86
*1089 FILLER_17_93
*1090 FILLER_17_100
*1091 FILLER_17_163
*1092 FILLER_17_165
*1093 FILLER_18_0
*1094 FILLER_18_7
*1095 FILLER_18_14
*1096 FILLER_18_21
*1097 FILLER_18_28
*1098 FILLER_18_35
*1099 FILLER_18_42
*1100 FILLER_18_49
*1101 FILLER_18_55
*1102 FILLER_18_62
*1103 FILLER_18_64
*1104 FILLER_18_109
*1105 FILLER_18_122
*1106 FILLER_18_150
*1107 FILLER_18_157
*1108 FILLER_18_164
*1109 FILLER_19_0
*1110 FILLER_19_7
*1111 FILLER_19_14
*1112 FILLER_19_21
*1113 FILLER_19_28
*1114 FILLER_19_35
*1115 FILLER_19_46
*1116 FILLER_19_102
*1117 FILLER_19_111
*1118 FILLER_19_131
*1119 FILLER_19_136
*1120 FILLER_19_142
*1121 FILLER_19_151
*1122 FILLER_19_164

*PORTS
A[0] I
A[10] I
A[11] I
A[12] I
A[13] I
A[14] I
A[15] I
A[16] I
A[17] I
A[18] I
A[19] I
A[1] I
A[20] I
A[21] I
A[22] I
A[23] I
A[24] I
A[25] I
A[26] I
A[27] I
A[28] I
A[29] I
A[2] I
A[30] I
A[31] I
A[3] I
A[4] I
A[5] I
A[6] I
A[7] I
A[8] I
A[9] I
B[0] I
B[10] I
B[11] I
B[12] I
B[13] I
B[14] I
B[15] I
B[16] I
B[17] I
B[18] I
B[19] I
B[1] I
B[20] I
B[21] I
B[22] I
B[23] I
B[24] I
B[25] I
B[26] I
B[27] I
B[28] I
B[29] I
B[2] I
B[30] I
B[31] I
B[3] I
B[4] I
B[5] I
B[6] I
B[7] I
B[8] I
B[9] I
Ci I
Co O
S[0] O
S[10] O
S[11] O
S[12] O
S[13] O
S[14] O
S[15] O
S[16] O
S[17] O
S[18] O
S[19] O
S[1] O
S[20] O
S[21] O
S[22] O
S[23] O
S[24] O
S[25] O
S[26] O
S[27] O
S[28] O
S[29] O
S[2] O
S[30] O
S[31] O
S[3] O
S[4] O
S[5] O
S[6] O
S[7] O
S[8] O
S[9] O

*D_NET *1 0.00285452
*CONN
*P A[0] I
*I *656:A I *D sg13g2_buf_1
*CAP
1 A[0] 0.00138706
2 *656:A 0
3 *1:7 0.00138706
4 *1:7 *33:9 0
5 *1:7 *65:17 0
6 *1:7 *377:10 8.03974e-05
*RES
1 A[0] *1:7 30.7624 
2 *1:7 *656:A 20 
*END

*D_NET *2 0.00372175
*CONN
*P A[10] I
*I *657:A I *D sg13g2_buf_1
*CAP
1 A[10] 0.00176996
2 *657:A 0.00176996
3 *657:A S[10] 0
4 *657:A S[16] 0
5 *657:A *663:A 0.000181839
6 *657:A *695:A 0
7 *657:A *315:10 0
8 *657:A *320:10 0
9 *657:A *346:10 0
*RES
1 A[10] *657:A 34.6168 
*END

*D_NET *3 0.00414216
*CONN
*P A[11] I
*I *658:A I *D sg13g2_buf_1
*CAP
1 A[11] 0.000730686
2 *658:A 0.000168562
3 *3:15 0.000899248
4 *658:A S[11] 0
5 *658:A S[16] 0.000659721
6 *658:A *690:A 0.000394723
7 *658:A *35:13 0
8 *3:15 S[11] 0
9 *3:15 *35:13 0.00128922
*RES
1 A[11] *3:15 47.3832 
2 *3:15 *658:A 22.6224 
*END

*D_NET *4 0.00310914
*CONN
*P A[12] I
*I *659:A I *D sg13g2_buf_1
*CAP
1 A[12] 0.00155457
2 *659:A 0.00155457
3 *659:A *691:A 0
*RES
1 A[12] *659:A 34.1064 
*END

*D_NET *5 0.00390652
*CONN
*P A[13] I
*I *660:A I *D sg13g2_buf_1
*CAP
1 A[13] 0.00178706
2 *660:A 0
3 *5:11 0.00178706
4 *5:11 Co 0
5 *5:11 S[31] 0
6 *5:11 *37:11 0
7 *5:11 *38:17 7.53965e-05
8 *5:11 *56:11 0
9 *5:11 *57:11 0
10 *5:11 *66:14 0
11 *5:11 *317:14 0.000155228
12 *5:11 *350:10 0.000101779
13 *5:11 *378:8 0
14 *5:11 *384:8 0
*RES
1 A[13] *5:11 33.7104 
2 *5:11 *660:A 20 
*END

*D_NET *6 0.00353196
*CONN
*P A[14] I
*I *661:A I *D sg13g2_buf_1
*CAP
1 A[14] 0.0016298
2 *661:A 0
3 *6:11 0.0016298
4 *6:11 *7:11 0
5 *6:11 *24:11 0
6 *6:11 *38:17 0
7 *6:11 *56:11 0.000197002
8 *6:11 *337:8 0
9 *6:11 *384:8 7.53575e-05
*RES
1 A[14] *6:11 32.496 
2 *6:11 *661:A 20 
*END

*D_NET *7 0.00516472
*CONN
*P A[15] I
*I *662:A I *D sg13g2_buf_1
*CAP
1 A[15] 0.00192547
2 *662:A 0
3 *7:11 0.00192547
4 *7:11 S[14] 0
5 *7:11 S[15] 0
6 *7:11 *728:A 0
7 *7:11 *24:11 0.000340707
8 *7:11 *39:9 0
9 *7:11 *56:11 0.000288281
10 *7:11 *318:10 0.000155
11 *7:11 *319:10 0.000101779
12 *7:11 *337:8 0
13 *7:11 *337:14 0.000144766
14 *7:11 *351:10 0
15 *7:11 *368:10 0.000261104
16 *7:11 *384:8 0
17 *7:11 *385:12 2.21361e-05
18 *6:11 *7:11 0
*RES
1 A[15] *7:11 35.7696 
2 *7:11 *662:A 20 
*END

*D_NET *8 0.0045553
*CONN
*P A[16] I
*I *663:A I *D sg13g2_buf_1
*CAP
1 A[16] 0.00107681
2 *663:A 0.00107681
3 *663:A *695:A 0.00221984
4 *663:A *34:9 0
5 *663:A *352:10 0
6 *657:A *663:A 0.000181839
*RES
1 A[16] *663:A 31.6952 
*END

*D_NET *9 0.0082538
*CONN
*P A[17] I
*I *664:A I *D sg13g2_buf_1
*CAP
1 A[17] 0.00031702
2 *664:A 0.00159287
3 *9:11 0.00190989
4 *664:A S[20] 0
5 *664:A *499:A 0
6 *664:A *503:A 1.54556e-05
7 *664:A *503:B 0.000235021
8 *664:A *504:B 0
9 *664:A *504:A 0
10 *664:A *696:A 0
11 *664:A *702:A 0.00316626
12 *664:A *45:11 0
13 *664:A *186:10 0.000234226
14 *664:A *275:10 0.000287298
15 *664:A *359:6 0.000181611
16 *664:A *359:8 0
17 *664:A *361:59 0
18 *664:A *394:10 0.000314152
19 *9:11 *696:A 0
20 *9:11 *46:17 0
*RES
1 A[17] *9:11 42.3232 
2 *9:11 *664:A 38.8936 
*END

*D_NET *10 0.00401489
*CONN
*P A[18] I
*I *665:A I *D sg13g2_buf_1
*CAP
1 A[18] 0.000457137
2 *665:A 0.00147269
3 *10:11 0.00192983
4 *665:A S[18] 0
5 *665:A *700:A 0
6 *665:A *322:10 0.000155228
7 *665:A *357:6 0
8 *10:11 S[20] 0
9 *10:11 *668:A 0
10 *10:11 *697:A 0
*RES
1 A[18] *10:11 43.9864 
2 *10:11 *665:A 35.7168 
*END

*D_NET *11 0.00387069
*CONN
*P A[19] I
*I *666:A I *D sg13g2_buf_1
*CAP
1 A[19] 0.00132716
2 *666:A 0
3 *11:9 0.00132716
4 *11:9 S[19] 0
5 *11:9 *43:13 0.000823121
6 *11:9 *75:26 7.51684e-05
7 *11:9 *77:14 0
8 *11:9 *96:10 0.000242908
9 *11:9 *323:12 7.51684e-05
10 *11:9 *355:10 0
*RES
1 A[19] *11:9 32.54 
2 *11:9 *666:A 20 
*END

*D_NET *12 0.00267699
*CONN
*P A[1] I
*I *667:A I *D sg13g2_buf_1
*CAP
1 A[1] 0.00132741
2 *667:A 0
3 *12:9 0.00132741
4 *12:9 S[1] 0
5 *12:9 *44:9 0
6 *12:9 *324:10 2.21754e-05
7 *12:9 *356:10 0
*RES
1 A[1] *12:9 31.2728 
2 *12:9 *667:A 20 
*END

*D_NET *13 0.00691692
*CONN
*P A[20] I
*I *668:A I *D sg13g2_buf_1
*CAP
1 A[20] 0.000159295
2 *668:A 0.00161307
3 *13:11 0.00177237
4 *668:A S[20] 0
5 *668:A *504:A 0
6 *668:A *512:B 0
7 *668:A *513:A 0.000128618
8 *668:A *603:A 4.10069e-05
9 *668:A *604:B 0
10 *668:A *604:A_N 0.000261293
11 *668:A *697:A 0
12 *668:A *76:20 0
13 *668:A *195:10 0
14 *668:A *199:8 0
15 *668:A *272:37 5.06184e-05
16 *668:A *325:10 0.000155094
17 *668:A *329:54 0
18 *668:A *354:10 0
19 *668:A *359:6 0
20 *668:A *359:8 0
21 *668:A *360:26 0
22 *668:A *361:59 0
23 *668:A *393:10 0.00267147
24 *13:11 S[20] 6.40811e-05
25 *13:11 *45:11 0
26 *10:11 *668:A 0
*RES
1 A[20] *13:11 41.452 
2 *13:11 *668:A 38.4624 
*END

*D_NET *14 0.00709086
*CONN
*P A[21] I
*I *669:A I *D sg13g2_buf_1
*CAP
1 A[21] 0.00230404
2 *669:A 5.28266e-05
3 *14:17 0.00235686
4 *669:A *697:A 0.000288281
5 *669:A *76:20 0.000288053
6 *14:17 S[21] 0
7 *14:17 *500:B1 0
8 *14:17 *500:A2 0.00020771
9 *14:17 *696:A 0
10 *14:17 *46:17 0.000499388
11 *14:17 *193:10 0.000176233
12 *14:17 *274:8 0.000178405
13 *14:17 *283:10 4.8613e-05
14 *14:17 *326:14 0
15 *14:17 *329:45 0
16 *14:17 *358:14 0
17 *14:17 *361:41 9.63322e-05
18 *14:17 *361:49 0.000306857
19 *14:17 *362:22 0.000287258
*RES
1 A[21] *14:17 40.2312 
2 *14:17 *669:A 41.144 
*END

*D_NET *15 0.00620817
*CONN
*P A[22] I
*I *670:A I *D sg13g2_buf_1
*CAP
1 A[22] 0.00220623
2 *670:A 0.00220623
3 *670:A S[23] 0
4 *670:A *510:A 0
5 *670:A *510:B 0
6 *670:A *593:B 0
7 *670:A *602:B 0
8 *670:A *671:A 0
9 *670:A *47:11 0
10 *670:A *80:12 0
11 *670:A *185:24 0
12 *670:A *197:19 0
13 *670:A *198:10 0.000181194
14 *670:A *272:10 0.000287448
15 *670:A *327:10 0
16 *670:A *328:12 0.00132708
*RES
1 A[22] *670:A 38.524 
*END

*D_NET *16 0.00289262
*CONN
*P A[23] I
*I *671:A I *D sg13g2_buf_1
*CAP
1 A[23] 0.00116295
2 *671:A 0.000283355
3 *16:11 0.00144631
4 *671:A S[21] 0
5 *16:11 S[23] 0
6 *16:11 *672:A 0
7 *16:11 *48:11 0
8 *16:11 *394:10 0
9 *670:A *671:A 0
*RES
1 A[23] *16:11 49.8472 
2 *16:11 *671:A 22.6224 
*END

*D_NET *17 0.00344637
*CONN
*P A[24] I
*I *672:A I *D sg13g2_buf_2
*CAP
1 A[24] 0.0011846
2 *672:A 0.0011846
3 *672:A *704:A 0.00107717
4 *672:A *361:10 0
5 *16:11 *672:A 0
*RES
1 A[24] *672:A 30.0078 
*END

*D_NET *18 0.00215298
*CONN
*P A[25] I
*I *673:A I *D sg13g2_buf_1
*CAP
1 A[25] 0.00107649
2 *673:A 0.00107649
3 *673:A S[25] 0
4 *673:A *330:10 0
*RES
1 A[25] *673:A 31.5896 
*END

*D_NET *19 0.00320267
*CONN
*P A[26] I
*I *674:A I *D sg13g2_buf_2
*CAP
1 A[26] 0.00130427
2 *674:A 0
3 *19:9 0.00130427
4 *19:9 S[26] 0
5 *19:9 *629:A 1.16008e-05
6 *19:9 *743:A 0
7 *19:9 *51:9 2.21754e-05
8 *19:9 *331:8 0.000113246
9 *19:9 *366:23 0.000447111
*RES
1 A[26] *19:9 31.847 
2 *19:9 *674:A 20 
*END

*D_NET *20 0.00529408
*CONN
*P A[27] I
*I *675:A I *D sg13g2_buf_1
*CAP
1 A[27] 0.000930489
2 *675:A 0
3 *20:17 0.00128194
4 *20:11 0.00221243
5 *20:11 *22:9 0
6 *20:11 *52:11 0
7 *20:17 S[27] 0.000869224
8 *20:17 *633:B 0
9 *20:17 *22:9 0
10 *20:17 *86:10 0
11 *20:17 *90:10 0
12 *20:17 *227:25 0
13 *20:17 *336:27 0
*RES
1 A[27] *20:11 47.26 
2 *20:11 *20:17 30.7624 
3 *20:17 *675:A 20 
*END

*D_NET *21 0.0028781
*CONN
*P A[28] I
*I *676:A I *D sg13g2_buf_2
*CAP
1 A[28] 0.00129167
2 *676:A 0
3 *21:9 0.00129167
4 *21:9 S[27] 0
5 *21:9 S[29] 0
6 *21:9 *333:10 0.000101779
7 *21:9 *334:6 0
8 *21:9 *366:6 0.000192984
*RES
1 A[28] *21:9 30.791 
2 *21:9 *676:A 20 
*END

*D_NET *22 0.00243016
*CONN
*P A[29] I
*I *677:A I *D sg13g2_buf_1
*CAP
1 A[29] 0.00115365
2 *677:A 0
3 *22:9 0.00115365
4 *22:9 S[27] 0
5 *22:9 *52:11 0
6 *22:9 *227:10 0
7 *22:9 *227:25 0.000122871
8 *22:9 *366:6 0
9 *20:11 *22:9 0
10 *20:17 *22:9 0
*RES
1 A[29] *22:9 26.1248 
2 *22:9 *677:A 20 
*END

*D_NET *23 0.00330803
*CONN
*P A[2] I
*I *678:A I *D sg13g2_buf_1
*CAP
1 A[2] 0.000859158
2 *678:A 0.000859158
3 *678:A S[2] 0
4 *678:A S[3] 0
5 *678:A *710:A 0.00158971
*RES
1 A[2] *678:A 30.0056 
*END

*D_NET *24 0.00396859
*CONN
*P A[30] I
*I *679:A I *D sg13g2_buf_1
*CAP
1 A[30] 0.00181394
2 *679:A 0
3 *24:11 0.00181394
4 *24:11 S[30] 0
5 *24:11 *411:A 0
6 *24:11 *56:11 0
7 *24:11 *90:10 0
8 *24:11 *337:8 0
9 *24:11 *368:10 0
10 *24:11 *402:8 0
11 *6:11 *24:11 0
12 *7:11 *24:11 0.000340707
*RES
1 A[30] *24:11 33.7104 
2 *24:11 *679:A 20 
*END

*D_NET *25 0.00276867
*CONN
*P A[31] I
*I *680:A I *D sg13g2_buf_1
*CAP
1 A[31] 0.00138434
2 *680:A 0
3 *25:7 0.00138434
4 *25:7 S[13] 0
5 *25:7 *57:11 0
*RES
1 A[31] *25:7 30.208 
2 *25:7 *680:A 20 
*END

*D_NET *26 0.00366599
*CONN
*P A[3] I
*I *681:A I *D sg13g2_buf_1
*CAP
1 A[3] 0.000805922
2 *681:A 0.000368156
3 *26:11 0.00117408
4 *681:A *713:A 0.00129574
5 *26:11 *710:A 2.20968e-05
6 *26:11 *713:A 0
7 *26:11 *401:16 0
*RES
1 A[3] *26:11 46.3096 
2 *26:11 *681:A 25.1568 
*END

*D_NET *27 0.00300591
*CONN
*P A[4] I
*I *682:A I *D sg13g2_buf_1
*CAP
1 A[4] 0.00136523
2 *682:A 0
3 *27:7 0.00136523
4 *27:7 S[5] 0
5 *27:7 *59:9 0
6 *27:7 *93:8 0.000275459
7 *27:7 *313:10 0
*RES
1 A[4] *27:7 32.2408 
2 *27:7 *682:A 20 
*END

*D_NET *28 0.00310172
*CONN
*P A[5] I
*I *683:A I *D sg13g2_buf_1
*CAP
1 A[5] 0.00155086
2 *683:A 0
3 *28:11 0.00155086
4 *28:11 S[4] 0
5 *28:11 *59:9 0
6 *28:11 *60:9 0
7 *28:11 *313:8 0
8 *28:11 *372:14 0
9 *28:11 *405:8 0
*RES
1 A[5] *28:11 31.572 
2 *28:11 *683:A 20 
*END

*D_NET *29 0.00297272
*CONN
*P A[6] I
*I *684:A I *D sg13g2_buf_1
*CAP
1 A[6] 0.0013716
2 *684:A 0
3 *29:11 0.0013716
4 *29:11 *30:11 4.79124e-05
5 *29:11 *61:9 0.000181611
6 *29:11 *373:10 0
*RES
1 A[6] *29:11 32.4168 
2 *29:11 *684:A 20 
*END

*D_NET *30 0.00279832
*CONN
*P A[7] I
*I *685:A I *D sg13g2_buf_1
*CAP
1 A[7] 0.00128449
2 *685:A 0
3 *30:11 0.00128449
4 *30:11 *62:7 0
5 *30:11 *373:10 0.000181422
6 *29:11 *30:11 4.79124e-05
*RES
1 A[7] *30:11 31.572 
2 *30:11 *685:A 20 
*END

*D_NET *31 0.0075198
*CONN
*P A[8] I
*I *686:A I *D sg13g2_buf_1
*CAP
1 A[8] 0.00196538
2 *686:A 0.000113581
3 *31:13 0.00207896
4 *686:A *544:A 0.000341274
5 *686:A *98:18 0
6 *31:13 *586:A 0
7 *31:13 *586:B 0
8 *31:13 *719:A 0
9 *31:13 *63:9 0.00261824
10 *31:13 *67:12 0.000402369
11 *31:13 *344:10 0
12 *31:13 *375:8 0
*RES
1 A[8] *31:13 38.8936 
2 *31:13 *686:A 41.3552 
*END

*D_NET *32 0.0025165
*CONN
*P A[9] I
*I *687:A I *D sg13g2_buf_1
*CAP
1 A[9] 0.00125825
2 *687:A 0.00125825
3 *687:A *63:9 0
*RES
1 A[9] *687:A 30.1816 
*END

*D_NET *33 0.00365772
*CONN
*P B[0] I
*I *688:A I *D sg13g2_buf_1
*CAP
1 B[0] 0.0016581
2 *688:A 0
3 *33:9 0.0016581
4 *33:9 S[0] 0
5 *33:9 *295:16 0
6 *33:9 *377:10 0.000341511
7 *1:7 *33:9 0
*RES
1 B[0] *33:9 32.54 
2 *33:9 *688:A 20 
*END

*D_NET *34 0.00287057
*CONN
*P B[10] I
*I *689:A I *D sg13g2_buf_1
*CAP
1 B[10] 0.00143529
2 *689:A 0
3 *34:9 0.00143529
4 *34:9 S[9] 0
5 *34:9 *98:18 0
6 *34:9 *352:10 0
7 *663:A *34:9 0
*RES
1 B[10] *34:9 32.6456 
2 *34:9 *689:A 40 
*END

*D_NET *35 0.00436156
*CONN
*P B[11] I
*I *690:A I *D sg13g2_buf_1
*CAP
1 B[11] 0.000865566
2 *690:A 0.000473243
3 *35:13 0.00133881
4 *690:A S[11] 0
5 *690:A S[16] 0
6 *690:A *315:10 0
7 *35:13 S[11] 0
8 *35:13 S[16] 0
9 *35:13 *380:10 0
10 *658:A *690:A 0.000394723
11 *658:A *35:13 0
12 *3:15 *35:13 0.00128922
*RES
1 B[11] *35:13 47.7968 
2 *35:13 *690:A 24.3736 
*END

*D_NET *36 0.00356031
*CONN
*P B[12] I
*I *691:A I *D sg13g2_buf_1
*CAP
1 B[12] 0.00178016
2 *691:A 0.00178016
3 *691:A S[12] 0
4 *691:A *725:A 0
5 *691:A *316:6 0
6 *659:A *691:A 0
*RES
1 B[12] *691:A 35.2328 
*END

*D_NET *37 0.00287541
*CONN
*P B[13] I
*I *692:A I *D sg13g2_buf_1
*CAP
1 B[13] 0.00142662
2 *692:A 0
3 *37:11 0.00142662
4 *37:11 *38:17 2.21754e-05
5 *37:11 *57:11 0
6 *37:11 *317:14 0
7 *37:11 *349:10 0
8 *37:11 *383:8 0
9 *5:11 *37:11 0
*RES
1 B[13] *37:11 32.0736 
2 *37:11 *692:A 20 
*END

*D_NET *38 0.00436929
*CONN
*P B[14] I
*I *693:A I *D sg13g2_buf_1
*CAP
1 B[14] 0.00166488
2 *693:A 0
3 *38:17 0.00166488
4 *38:17 *56:11 0
5 *38:17 *57:11 0.000287676
6 *38:17 *369:8 0
7 *38:17 *378:8 0.000366807
8 *38:17 *383:8 0.000287487
9 *38:17 *403:8 0
10 *5:11 *38:17 7.53965e-05
11 *6:11 *38:17 0
12 *37:11 *38:17 2.21754e-05
*RES
1 B[14] *38:17 34.0272 
2 *38:17 *693:A 20 
*END

*D_NET *39 0.00334648
*CONN
*P B[15] I
*I *694:A I *D sg13g2_buf_1
*CAP
1 B[15] 0.0014389
2 *694:A 0
3 *39:9 0.0014389
4 *39:9 S[30] 0
5 *39:9 *746:A 0.000234455
6 *39:9 *369:8 0.000234226
7 *7:11 *39:9 0
*RES
1 B[15] *39:9 31.1408 
2 *39:9 *694:A 20 
*END

*D_NET *40 0.00426652
*CONN
*P B[16] I
*I *695:A I *D sg13g2_buf_1
*CAP
1 B[16] 0.00102334
2 *695:A 0.00102334
3 *657:A *695:A 0
4 *663:A *695:A 0.00221984
*RES
1 B[16] *695:A 30.2168 
*END

*D_NET *41 0.0074725
*CONN
*P B[17] I
*I *696:A I *D sg13g2_buf_1
*CAP
1 B[17] 0.00249548
2 *696:A 0.00249548
3 *696:A *505:B_N 0
4 *696:A *506:B1 0
5 *696:A *509:B 0
6 *696:A *509:A 0
7 *696:A *702:A 0.00190237
8 *696:A *45:11 0
9 *696:A *46:17 0
10 *696:A *193:10 0
11 *696:A *283:10 0
12 *696:A *354:26 0
13 *696:A *392:10 0.000579165
14 *664:A *696:A 0
15 *9:11 *696:A 0
16 *14:17 *696:A 0
*RES
1 B[17] *696:A 41.7448 
*END

*D_NET *42 0.00709512
*CONN
*P B[18] I
*I *697:A I *D sg13g2_buf_1
*CAP
1 B[18] 0.00160646
2 *697:A 0.00160646
3 *697:A S[18] 0.00190502
4 *697:A *701:A 0.000181839
5 *697:A *76:20 4.79124e-05
6 *697:A *357:6 0.00145914
7 *697:A *393:10 0
8 *668:A *697:A 0
9 *669:A *697:A 0.000288281
10 *10:11 *697:A 0
*RES
1 B[18] *697:A 37.9432 
*END

*D_NET *43 0.00332276
*CONN
*P B[19] I
*I *698:A I *D sg13g2_buf_1
*CAP
1 B[19] 0.00118563
2 *698:A 0
3 *43:13 0.00118563
4 *43:13 S[7] 0
5 *43:13 *751:A 0.000128389
6 *11:9 *43:13 0.000823121
*RES
1 B[19] *43:13 31.66 
2 *43:13 *698:A 20 
*END

*D_NET *44 0.00216701
*CONN
*P B[1] I
*I *699:A I *D sg13g2_buf_1
*CAP
1 B[1] 0.00108351
2 *699:A 0
3 *44:9 0.00108351
4 *12:9 *44:9 0
*RES
1 B[1] *44:9 31.2728 
2 *44:9 *699:A 20 
*END

*D_NET *45 0.00345771
*CONN
*P B[20] I
*I *700:A I *D sg13g2_buf_1
*CAP
1 B[20] 0.00119839
2 *700:A 0.000200167
3 *45:11 0.00139856
4 *700:A S[18] 0.0006606
5 *700:A *357:6 0
6 *45:11 S[20] 0
7 *664:A *45:11 0
8 *665:A *700:A 0
9 *696:A *45:11 0
10 *13:11 *45:11 0
*RES
1 B[20] *45:11 49.8472 